CRYSTAL

PRIMVEC
 2.72855551 2.72855551 0.00000000
-2.72855551 2.72855551 0.00000000
 0.00000000 0.00000000 10.91422204

PRIMCOORD
6
  O    0.00000000 2.72855551 5.06
  C    0.00000000 2.72855551 3.92
  Rh   0.00000000 0.00000000 1.91509160
  Rh   0.00000000 2.72855551 1.91509160
  Rh  -1.36427775 1.36427775 0.00000000
  Rh   1.36427775 1.36427775 0.00000000
